Circuit: * C:\Users\bogda\Desktop\FACULTA\Year II - Sem I\DCS - Digital Circuits & Signals\COURSE\Draft1.asc

WARNING: Less than two connections to node OUT.  This node is used by M2.
Direct Newton iteration for .op point succeeded.

Date: Mon Jan 18 19:52:42 2021
Total elapsed time: 0.065 seconds.

tnom = 27
temp = 27
method = modified trap
totiter = 3567
traniter = 3559
tranpoints = 1456
accept = 1343
rejected = 113
matrix size = 16
fillins = 0
solver = Normal
Matrix Compiler1: 1.30 KB object code size  0.3/0.2/[0.1]
Matrix Compiler2: 1.61 KB object code size  0.2/0.2/[0.2]

