Circuit: * C:\Users\bogda\Desktop\FACULTA\Year II - Sem I\DCS - Digital Circuits & Signals\COURSE\Ex1.asc

Direct Newton iteration for .op point succeeded.

Date: Mon Jan 18 19:21:08 2021
Total elapsed time: 0.086 seconds.

tnom = 27
temp = 27
method = modified trap
totiter = 2721
traniter = 2708
tranpoints = 1246
accept = 1187
rejected = 59
matrix size = 32
fillins = 0
solver = Normal
Matrix Compiler1: 3.54 KB object code size  0.8/0.4/[0.2]
Matrix Compiler2: 3.72 KB object code size  0.4/0.5/[0.3]

