Circuit: * C:\Users\bogda\Desktop\FACULTA\Year II - Sem I\DCS - Digital Circuits & Signals\COURSE\Ex2.asc

Direct Newton iteration for .op point succeeded.

Date: Tue Jan 19 01:44:05 2021
Total elapsed time: 0.081 seconds.

tnom = 27
temp = 27
method = modified trap
totiter = 3203
traniter = 3193
tranpoints = 1348
accept = 1263
rejected = 85
matrix size = 20
fillins = 0
solver = Normal
Matrix Compiler1: 1.76 KB object code size  0.4/0.2/[0.1]
Matrix Compiler2: 2.09 KB object code size  0.2/0.3/[0.2]

