Circuit: * C:\Users\bogda\Desktop\FACULTA\Year II - Sem I\DCS - Lab\Lab 4\Resources\Schmitt_Trigger_SIM.asc

WARNING: Specified period is not longer than the sum of Trise, Tfall, and Ton for v2.  Increasing period to 2.01e-007
Direct Newton iteration for .op point succeeded.

Date: Sun Oct 25 14:58:00 2020
Total elapsed time: 0.084 seconds.

tnom = 27
temp = 27
method = modified trap
totiter = 2663
traniter = 2644
tranpoints = 1180
accept = 1142
rejected = 38
matrix size = 31
fillins = 0
solver = Normal
Matrix Compiler1: 3.67 KB object code size  0.7/0.4/[0.2]
Matrix Compiler2: 3.76 KB object code size  0.4/0.5/[0.2]

