Circuit: * C:\Users\bogda\Desktop\FACULTA\Year II - Sem I\DCS - Lab\Lab 3\Resources\Inverter_sim_tran.asc

Direct Newton iteration for .op point succeeded.

Date: Sun Oct 18 17:42:02 2020
Total elapsed time: 0.148 seconds.

tnom = 27
temp = 27
method = modified trap
totiter = 3536
traniter = 3495
tranpoints = 1590
accept = 1473
rejected = 117
matrix size = 49
fillins = 0
solver = Normal
Matrix Compiler1: 5.90 KB object code size  1.3/0.6/[0.4]
Matrix Compiler2: 5.59 KB object code size  0.5/0.8/[0.4]

