Circuit: * C:\Users\bogda\Desktop\FACULTA\Year II - Sem I\DCS - Lab\Lab 6\Draft2.asc

Direct Newton iteration for .op point succeeded.

Date: Sun Nov 29 19:19:24 2020
Total elapsed time: 0.056 seconds.

tnom = 27
temp = 27
method = modified trap
totiter = 2762
traniter = 2756
tranpoints = 1143
accept = 1113
rejected = 30
matrix size = 13
fillins = 0
solver = Normal
Matrix Compiler1: 1.03 KB object code size  0.3/0.1/[0.1]
Matrix Compiler2: 1.40 KB object code size  0.2/0.2/[0.2]

