Circuit: * C:\Users\bogda\Desktop\FACULTA\Year II - Sem I\DCS - Lab\Lab 4\Resources\Schmitt_Trigger.asc

WARNING: Specified period is not longer than the sum of Trise, Tfall, and Ton for v2.  Increasing period to 2.01e-007
Direct Newton iteration for .op point succeeded.

Date: Sat Oct 24 21:07:39 2020
Total elapsed time: 0.087 seconds.

tnom = 27
temp = 27
method = modified trap
totiter = 2343
traniter = 2307
tranpoints = 1087
accept = 1074
rejected = 13
matrix size = 31
fillins = 0
solver = Normal
Matrix Compiler1: 3.67 KB object code size  0.7/0.3/[0.2]
Matrix Compiler2: 3.76 KB object code size  0.3/0.5/[0.2]

