Circuit: * C:\Users\bogda\Desktop\FACULTA\Year II - Sem I\DCS - Lab\Lab 6\Draft1.asc

Direct Newton iteration for .op point succeeded.

Date: Sun Nov 29 19:19:30 2020
Total elapsed time: 0.048 seconds.

tnom = 27
temp = 27
method = modified trap
totiter = 2551
traniter = 2544
tranpoints = 1154
accept = 1124
rejected = 30
matrix size = 9
fillins = 0
solver = Normal
Matrix Compiler1: 546 bytes object code size  0.2/0.1/[0.1]
Matrix Compiler2: 837 bytes object code size  0.1/0.1/[0.1]

