Circuit: * C:\Users\bogda\Desktop\FACULTA\Year II - Sem I\DCS - Lab\Assignment I\Draft4.asc

.OP point found by inspection.

Date: Sun Oct 04 22:18:27 2020
Total elapsed time: 0.051 seconds.

tnom = 27
temp = 27
method = modified trap
totiter = 2240
traniter = 2240
tranpoints = 1121
accept = 1101
rejected = 20
matrix size = 3
fillins = 0
solver = Normal
Matrix Compiler1: 86 bytes object code size  0.0/0.0/[0.0]
Matrix Compiler2: off  [0.0]/0.0/0.0

