Circuit: * C:\Users\bogda\Desktop\FACULTA\Year II - Sem I\DCS - Lab\Lab 4\Resources\Edge_Detector.asc

Direct Newton iteration for .op point succeeded.

Date: Sun Oct 25 19:45:58 2020
Total elapsed time: 0.142 seconds.

tnom = 27
temp = 27
method = modified trap
totiter = 4790
traniter = 4769
tranpoints = 1568
accept = 1479
rejected = 89
matrix size = 32
fillins = 0
solver = Normal
Matrix Compiler1: 4.70 KB object code size  0.9/0.4/[0.3]
Matrix Compiler2: 3.80 KB object code size  0.4/0.5/[0.3]

