Circuit: * C:\Users\bogda\Desktop\FACULTA\Year II - Sem I\DCS - Lab\Lab 3\Resources\Ring Oscilator.asc

Direct Newton iteration for .op point succeeded.

Date: Mon Nov 02 16:19:27 2020
Total elapsed time: 0.098 seconds.

tnom = 27
temp = 27
method = modified trap
totiter = 2101
traniter = 2088
tranpoints = 1042
accept = 1042
rejected = 0
matrix size = 29
fillins = 0
solver = Normal
Matrix Compiler1: 3.76 KB object code size  0.7/0.4/[0.3]
Matrix Compiler2: 3.32 KB object code size  0.3/0.4/[0.2]

