Circuit: * C:\Users\bogda\Desktop\University\Year_II\SEM_1\DCS - Digital Circuits & Signals\LAB\Lab 7 - PE Logic & Domino Logic\Resources\Draft1.asc

Direct Newton iteration for .op point succeeded.

Date: Sun Dec 12 04:34:11 2021
Total elapsed time: 0.114 seconds.

tnom = 27
temp = 27
method = modified trap
totiter = 3854
traniter = 3848
tranpoints = 1512
accept = 1405
rejected = 107
matrix size = 34
fillins = 0
solver = Normal
Matrix Compiler1: 3.32 KB object code size  0.7/0.4/[0.2]
Matrix Compiler2: 3.58 KB object code size  0.3/0.5/[0.2]

